_audit_creation_date      'July 11, 2025'
_audit_creation_method    'Draft CIF file generated with Atomsk'
 
_chemical_name_common             ?
_chemical_melting_point           ?
_chemical_formula_iupac           'Fe20'
_chemical_formula_moiety          'Fe20'
_chemical_formula_sum             'Fe20'
_chemical_formula_weight          1116.900
_chemical_compound_source         ?
_chemical_absolute_configuration  ?
_exptl_crystal_description        'EDIT-ENTRY'
_diffrn_measurement_device_type   'EDIT-ENTRY'
 
_space_group_IT_number            1
_space_group_crystal_system       tetragonal
_symmetry_space_group_name_Hall   'P 1'
_symmetry_space_group_name_H-M    'P 1'
 
loop_
_space_group_symop_operation_xyz
'+x,+y,+z'
 
_cell_length_a                    3.2000
_cell_length_b                    3.2000
_cell_length_c                    32.0000
_cell_angle_alpha                 90.0000
_cell_angle_beta                  90.0000
_cell_angle_gamma                 90.0000
_cell_volume                      327.6800
 
loop_
 _atom_site_label
 _atom_site_type_symbol
 _atom_site_fract_x
 _atom_site_fract_y
 _atom_site_fract_z
Fe1  Fe  0.000000  0.000000  0.000000
Fe2  Fe  0.500000  0.500000  0.050000
Fe3  Fe  0.000000  0.000000  0.100000
Fe4  Fe  0.500000  0.500000  0.150000
Fe5  Fe  0.000000  0.000000  0.200000
Fe6  Fe  0.500000  0.500000  0.250000
Fe7  Fe  0.000000  0.000000  0.300000
Fe8  Fe  0.500000  0.500000  0.350000
Fe9  Fe  0.000000  0.000000  0.400000
Fe10  Fe  0.500000  0.500000  0.450000
Fe11  Fe  0.000000  0.000000  0.500000
Fe12  Fe  0.500000  0.500000  0.550000
Fe13  Fe  0.000000  0.000000  0.600000
Fe14  Fe  0.500000  0.500000  0.650000
Fe15  Fe  0.000000  0.000000  0.700000
Fe16  Fe  0.500000  0.500000  0.750000
Fe17  Fe  0.000000  0.000000  0.800000
Fe18  Fe  0.500000  0.500000  0.850000
Fe19  Fe  0.000000  0.000000  0.900000
Fe20  Fe  0.500000  0.500000  0.950000
