_audit_creation_date      'July 11, 2025'
_audit_creation_method    'Draft CIF file generated with Atomsk'
 
_chemical_name_common             ?
_chemical_melting_point           ?
_chemical_formula_iupac           'Fe42 Ta36'
_chemical_formula_moiety          'Fe42 Ta36'
_chemical_formula_sum             'Fe42 Ta36'
_chemical_formula_weight          8859.614
_chemical_compound_source         ?
_chemical_absolute_configuration  ?
_exptl_crystal_description        'EDIT-ENTRY'
_diffrn_measurement_device_type   'EDIT-ENTRY'
 
_space_group_IT_number            1
_space_group_crystal_system       orthorhombic
_symmetry_space_group_name_Hall   'P 1'
_symmetry_space_group_name_H-M    'P 1'
 
loop_
_space_group_symop_operation_xyz
'+x,+y,+z'
 
_cell_length_a                    4.8488
_cell_length_b                    8.3983
_cell_length_c                    26.8695
_cell_angle_alpha                 90.0000
_cell_angle_beta                  90.0000
_cell_angle_gamma                 90.0000
_cell_volume                      1094.1642
 
loop_
 _atom_site_label
 _atom_site_type_symbol
 _atom_site_fract_x
 _atom_site_fract_y
 _atom_site_fract_z
Fe1  Fe  0.000000  0.000000  0.000000
Fe2  Fe  0.500000  0.500000  0.000000
Fe3  Fe  -0.000000  0.666667  0.333333
Fe4  Fe  0.500000  0.166667  0.333333
Fe5  Fe  -0.000000  0.333333  0.666667
Fe6  Fe  0.500000  0.833333  0.666667
Fe7  Fe  0.250000  0.750000  0.410000
Fe8  Fe  0.750000  0.250000  0.410000
Fe9  Fe  0.250000  0.250000  0.410000
Fe10  Fe  0.750000  0.750000  0.410000
Fe11  Fe  -0.000000  0.500000  0.410000
Fe12  Fe  0.500000 -0.000000  0.410000
Fe13  Fe  0.250000  0.750000  0.590000
Fe14  Fe  0.750000  0.250000  0.590000
Fe15  Fe  0.250000  0.250000  0.590000
Fe16  Fe  0.750000  0.750000  0.590000
Fe17  Fe  -0.000000  0.500000  0.590000
Fe18  Fe  0.500000 -0.000000  0.590000
Fe19  Fe  0.249975  0.416675  0.743300
Fe20  Fe  0.749975  0.916675  0.743300
Fe21  Fe  0.250000  0.916667  0.743300
Fe22  Fe  0.750000  0.416667  0.743300
Fe23  Fe  0.499975  0.666675  0.743300
Fe24  Fe  0.999975  0.166675  0.743300
Fe25  Fe  0.249975  0.416675  0.923300
Fe26  Fe  0.749975  0.916675  0.923300
Fe27  Fe  0.250000  0.916667  0.923300
Fe28  Fe  0.750000  0.416667  0.923300
Fe29  Fe  0.499975  0.666675  0.923300
Fe30  Fe  0.999975  0.166675  0.923300
Fe31  Fe  0.250025  0.083325  0.076700
Fe32  Fe  0.750025  0.583325  0.076700
Fe33  Fe  0.250000  0.583333  0.076700
Fe34  Fe  0.750000  0.083333  0.076700
Fe35  Fe  0.000025  0.833325  0.076700
Fe36  Fe  0.500025  0.333325  0.076700
Fe37  Fe  0.250025  0.083325  0.256700
Fe38  Fe  0.750025  0.583325  0.256700
Fe39  Fe  0.250000  0.583333  0.256700
Fe40  Fe  0.750000  0.083333  0.256700
Fe41  Fe  0.000025  0.833325  0.256700
Fe42  Fe  0.500025  0.333325  0.256700
Ta1  Ta  0.000000  0.000000  0.833300
Ta2  Ta  0.500000  0.500000  0.833300
Ta3  Ta  0.000000  0.000000  0.166700
Ta4  Ta  0.500000  0.500000  0.166700
Ta5  Ta  -0.000000  0.666667  0.166700
Ta6  Ta  0.500000  0.166667  0.166700
Ta7  Ta  -0.000000  0.666667  0.500000
Ta8  Ta  0.500000  0.166667  0.500000
Ta9  Ta  -0.000000  0.333333  0.500000
Ta10  Ta  0.500000  0.833333  0.500000
Ta11  Ta  -0.000000  0.333333  0.833300
Ta12  Ta  0.500000  0.833333  0.833300
Ta13  Ta  0.000000  0.000000  0.654000
Ta14  Ta  0.500000  0.500000  0.654000
Ta15  Ta  0.000000  0.000000  0.346000
Ta16  Ta  0.500000  0.500000  0.346000
Ta17  Ta  -0.000000  0.666667  0.987300
Ta18  Ta  0.500000  0.166667  0.987300
Ta19  Ta  -0.000000  0.666667  0.679300
Ta20  Ta  0.500000  0.166667  0.679300
Ta21  Ta  -0.000000  0.333333  0.320700
Ta22  Ta  0.500000  0.833333  0.320700
Ta23  Ta  -0.000000  0.333333  0.012700
Ta24  Ta  0.500000  0.833333  0.012700
Ta25  Ta  0.000000  0.000000  0.552000
Ta26  Ta  0.500000  0.500000  0.552000
Ta27  Ta  0.000000  0.000000  0.448000
Ta28  Ta  0.500000  0.500000  0.448000
Ta29  Ta  -0.000000  0.666667  0.885300
Ta30  Ta  0.500000  0.166667  0.885300
Ta31  Ta  -0.000000  0.666667  0.781300
Ta32  Ta  0.500000  0.166667  0.781300
Ta33  Ta  -0.000000  0.333333  0.218700
Ta34  Ta  0.500000  0.833333  0.218700
Ta35  Ta  -0.000000  0.333333  0.114700
Ta36  Ta  0.500000  0.833333  0.114700
